187
Coordinates from GAUSSIAN-job system E 0
  S      -3.3802450   -6.2373760   -16.1601600
  S      -3.4226510  -10.2298140   -14.7153520
  S      -2.9067370  -14.9560450   -16.7120880
  S      -2.4950850  -11.8803810   -24.8896970
  S      -2.4116210  -14.8378320   -21.8447070
  F      -3.9121140    2.3046730   -13.6318570
  N      -3.0790590  -13.3756820   -16.2491920
  O      -3.3240160   -3.5421660   -16.2139890
  N      -2.7378140  -14.7293150   -18.3435020
  N      -3.0476660   -9.1627920   -18.4191760
  C      -3.1960680   -9.0215130   -17.0491400
  F      -3.4235840    1.8001230   -16.2143840
  C      -3.3353530   -7.9683390   -16.1187480
  C      -3.4711690   -8.4617900   -14.8100420
  C      -3.0075320  -12.6518380   -17.3569780
  C      -2.8130730  -13.4222730   -18.5490070
  C      -2.7470710  -12.7455830   -19.8021500
  C      -2.8526020  -11.3207720   -19.9253200
  C      -2.9766280  -10.5346800   -18.7090840
  C      -3.0786130  -11.2316950   -17.4601730
  C      -3.7624510   -3.6635440   -13.8306270
  N      -4.4419180   -4.9672600   -10.2026680
  C      -2.8275670   -7.9507050   -19.2185860
  C      -2.6115030  -13.2780930   -21.0893340
  C      -4.2365510   -2.7364330   -11.4845260
  C      -3.9716200    0.0116040   -13.0947580
  C      -3.8641790   -1.3080700   -13.5433760
  O      -2.5032010  -10.7091760   -27.2990710
  C      -3.2209270  -10.2766310   -16.4471270
  C      -3.7572740   -5.0267020   -13.5898690
  N      -4.5924650   -0.7422260    -9.8840830
  C      -3.5358950   -3.0100380   -15.1356710
  C      -4.3464540   -3.9802430   -10.7995780
  C      -3.7417650   -7.8137380   -12.3620710
  C      -3.9728840   -2.6112090   -12.83569300
  C      -3.6241160   -7.4827800   -13.82627700
  C      -4.4303550   -1.6213080   -10.61830500
  C      -2.6433890  -12.2143910   -21.98665700
  C      -2.5144950  -12.6304120   -23.32959700
  C      -3.6069420   -1.5506830   -14.89993900
  C      -3.5997970   -6.1793880   -14.38701800
  N      -1.8537040  -16.8222380   -28.56162800
  C      -3.8166410    1.0287190   -14.02409700
  C      -3.0006820   -9.7944230   -22.07298400
  C      -3.5610030    0.7675250   -15.37415500
  C      -2.2989360  -13.4740860   -25.67608500
  C      -2.3772870  -14.0256980   -23.41874200
  C      -2.3332960  -11.0807860   -29.66499400
  C      -2.1780210  -12.2225060   -30.46301100
  C      -2.1155000  -12.0791290   -31.85227300
  C      -2.2114930  -10.7997890   -32.37816200
  C      -2.3669910   -9.6720420   -31.56516200
  C      -2.4301810   -9.8010540   -30.18903500
  F      -2.4527520   -8.4686600   -32.14448900
  C      -2.1102470  -13.4177200   -29.58069000
  C      -2.2228220  -12.9445000   -28.20035900
  C      -2.3708610  -11.4755940   -28.23985200
  C      -2.2023200  -13.7289530   -27.06014400
  C      -1.9087970  -15.8620470   -29.20547600
  C      -1.3742970   -7.4175570   -19.22415000
  C      -2.2538050  -14.5207970   -24.71887600
  C      -3.4525310   -0.5342720   -15.83019500
  C      -2.0505550  -15.9833800   -25.01368300
  C      -2.5042020   -8.2506930   -10.16592900
  N      -1.7975380  -15.3493920   -32.53971600
  C      -1.9716060  -14.7126250   -30.04390000
  C      -2.3776810   -7.8411820   -11.63707900
  C      -0.5608490  -16.3918220   -25.05141600
  C      -1.2837240   -6.1623980   -20.11932700
  C      -0.3736290  -17.8968420   -25.26927900
  C      -1.8889380   -3.7075960   -20.51489800
  N      -2.7898210  -11.0228270   -21.29614600
  C      -1.8775270  -15.0428330   -31.42716900
  F      -2.1551430  -10.6227360   -33.70357600
  C      -2.1995110   -4.9910550   -19.73482800
  C       1.1153980   -8.0851470   -19.34728000
  C      -0.3383270   -8.4876260   -19.62301000
  C      -4.4524630   -9.5539480   -22.55450800
  C      -5.4885760   -9.6225070   -21.41484900
  C      -4.5268900   -8.2140080   -23.31990500
  C      -7.9380600   -9.9007720   -20.72924600
  C      -3.6467420   -8.1013380   -24.57145200
  C      -6.9438510   -9.7510190   -21.88734500
  C      -9.3898750  -10.0371870   -21.19605600
  C       1.0993520  -18.3184780   -25.31960400
  C      -1.1582950   -8.2743130    -9.43255900
  C      -1.2730640   -8.6868200    -7.96051900
  C       0.0708780   -8.7031340    -7.22347700
  C      -0.0405590   -9.1144300    -5.75093300
  C       1.3037380   -9.1285900    -5.01435500
  C       1.1942390   -9.5386900    -3.54152600
  C       2.5384800   -9.5523100    -2.80474600
  C       2.4197740   -9.9626090    -1.33414600
  C       1.2931870  -19.8242700   -25.53195100
  C       2.7642610  -20.2510300   -25.59224700
  C       2.9575300  -21.7567990   -25.80476200
  C       4.4280360  -22.1853660   -25.86759900
  C       4.6207480  -23.6909590   -26.08055800
  C       6.0907740  -24.1211550   -26.14435000
  C       6.2730080  -25.6266450   -26.35732700
  C      -2.8371590   -2.5572680   -20.16478500
  H      -3.2027070   -8.1099600   -20.22038800
  H      -3.4846190   -7.1926300   -18.79042300
  H      -4.1673450    0.2873750   -12.06957600
  H      -2.6166210   -8.9502570   -21.51650200
  H      -2.3455660   -9.8794240   -22.94117900
  H      -1.9970700  -12.9025070   -32.54034400
  H      -2.5496960   -8.9337150   -29.55193400
  H      -2.0887910  -14.7884820   -27.24178300
  H      -1.1459040   -7.1111360   -18.19513600
  H      -3.2555360   -0.7408020   -16.87457700
  H      -1.4773660   -6.4516930   -21.16183500
  H      -0.2491370   -5.8072590   -20.09803200
  H      -1.9378360   -3.9107950   -21.59183700
  H      -0.8549270   -3.4063070   -20.30881600
  H      -3.2509350   -5.2532750   -19.90383700
  H      -2.1069840   -4.7843440   -18.66281800
  H       1.2569110   -7.8274020   -18.29330600
  H       1.7921360   -8.9112140   -19.57912200
  H       1.4311460   -7.2280100   -19.94618900
  H      -0.5452180   -9.4093340   -19.07205600
  H      -0.4493670   -8.7320240   -20.68657200
  H      -4.6888820  -10.3588360   -23.26214100
  H      -5.2679930  -10.4840810   -20.77706700
  H      -5.3963960   -8.7345410   -20.77604300
  H      -5.5667700   -8.0525040   -23.61494300
  H      -4.2852220   -7.3978250   -22.62574900
  H      -7.6633190  -10.7760710   -20.12873300
  H      -7.8489900   -9.0346360   -20.06236900
  H      -2.5785690   -8.1109090   -24.33860500
  H      -3.8362260   -8.9151350   -25.27580600
  H      -3.8496940   -7.1613800   -25.09107200
  H      -7.0286920  -10.6214220   -22.55038300
  H      -7.2299350   -8.8802680   -22.48746500
  H     -10.0718320  -10.1433260   -20.34844400
  H      -9.7063640   -9.1598550   -21.76866800
  H      -9.5185050  -10.9145560   -21.83731500
  H      -4.2133470   -8.7978020   -12.27013000
  H      -4.4063780   -7.1141710   -11.85032600
  H      -1.7048230   -8.5304590   -12.15973900
  H      -1.9170060   -6.8495350   -11.70347300
  H      -2.9673180   -9.2440520   -10.10520800
  H      -3.1844320   -7.5570670    -9.65963300
  H      -2.5583130  -16.5627280   -24.23516500
  H      -2.5242900  -16.2675500   -25.95573500
  H      -0.0586370  -15.8398110   -25.85317800
  H      -0.0787370  -16.0869550   -24.11571500
  H      -0.8797000  -18.4446570   -24.46375700
  H      -0.8673120  -18.1854620   -26.20350900
  H       1.5983130  -18.0162970   -24.38958200
  H       1.6025480  -17.7726850   -26.12776900
  H      -0.6977910   -7.2799960    -9.49316100
  H      -0.4734230   -8.9598820    -9.94845300
  H      -1.7320240   -9.6819940    -7.89831700
  H      -1.9600250   -8.0025330    -7.44706400
  H       0.5292620   -7.7077780    -7.28664500
  H       0.7581220   -9.3868020    -7.73871000
  H      -0.4984630  -10.1100110    -5.68701300
  H      -0.7279550   -8.4310760    -5.23602700
  H       1.7614680   -8.1329620    -5.07898100
  H       1.9911560   -9.8120710    -5.52957000
  H       0.7369590  -10.5346120    -3.47551900
  H       0.5072510   -8.8555070    -3.02531400
  H       2.9951580   -8.5572690    -2.87028400
  H       3.2248780  -10.2352880    -3.31997200
  H       3.3944360   -9.9619100    -0.83839700
  H       1.9986490  -10.9682330    -1.23685200
  H       1.7671000   -9.2775380    -0.78395900
  H       0.7905170  -20.1244040   -26.45987000
  H       0.7909770  -20.3710670   -24.72339600
  H       3.2675600  -19.9491710   -24.66448700
  H       3.2659690  -19.7046020   -26.40125300
  H       2.4532350  -22.0581280   -26.73186200
  H       2.4560230  -22.3034120   -24.99564000
  H       4.9326720  -21.8839860   -24.94042900
  H       4.9294170  -21.6388900   -26.67687500
  H       4.1163390  -23.9930740   -27.00763500
  H       4.1199010  -24.2384710   -25.27141200
  H       6.5949780  -23.8198700   -25.21802900
  H       6.5911620  -23.5749360   -26.95318400
  H       7.3309790  -25.9000500   -26.39840700
  H       5.8094170  -25.9524020   -27.29379600
  H       5.8134420  -26.1993690   -25.54561300
  H      -2.5597640   -1.6376260   -20.68671200
  H      -2.8249030   -2.3584230   -19.08928800
  H      -3.8686130   -2.7977740   -20.44072400
  H      -3.9077300   -5.3026230   -12.55561500